** sch_path: /home/renslow/Documents/ece5120/hw03/xschem/diff_pair_d.sch
.subckt diff_pair_d VDD VSS LOn LOp RFn RFp IFp IFn
*.PININFO VDD:B VSS:B LOn:B LOp:B RFn:B RFp:B IFp:B IFn:B
.ends
.end
